first line.
it is test for git!!!
it is second line.
one true life.
new line.
this is new day£¡
really?