it is test for git!!!
it is second line.
one true life.
new line.